108
#comment initial random config
S 16.97876252993848 7.9561712404955465 15.678729563583765
S 14.442999067691195 3.8018845065782774 16.170374167367278
S 3.7265374376578104 4.2767831752727155 17.79648250446482
S 1.7387737518487438 15.596402925725467 11.12853683507439
S 16.197251417586973 5.128619403833276 10.86334104340982
S 15.052058820956873 14.261658562506682 0.539375830122645
S 1.10742928264681 1.5390313903126935 12.678139397158747
S 8.261279445610404 10.855035974200964 5.666497586445412
S 0.8823348129485746 5.085999597638706 14.031263306958342
S 13.756260390433455 9.541556139523838 6.505916220982155
S 4.9127188125624475 14.286329771770681 4.629335769903509
S 14.551496535699098 2.4386217639101844 1.6556800275527175
S 3.4778088353251633 4.2591993766213525 6.103733893617985
S 5.38150442505099 0.5340247382471639 2.7369076868430247
S 16.65296553893476 16.377963535727897 12.970358205667214
S 17.02892371723074 8.860499173549991 5.457460119755213
S 1.6956750395703306 11.134515336210901 10.794592309871327
S 9.056999110826034 13.335462681232402 9.982530406231659
S 6.021815280616817 10.786222786203597 12.11106649254228
S 15.122067306216936 5.066903909304933 7.428119262584196
S 7.70969429619742 4.416536258622851 14.380028130496438
S 0.10693231005362747 8.339501763179921 1.5279685218905712
S 12.162800255745609 8.459424406917439 17.582252706045377
S 12.730923378558616 1.01404524141578 7.687598439883633
S 15.247256391820994 12.337778803153858 8.309571169287869
S 8.301832362448602 5.644748646044995 10.219764808989169
S 0.8818554750632086 14.965050666590209 7.442503180570667
S 6.291547034482525 6.164365428955142 7.287897196020946
S 15.400675589067323 1.6582066904978536 10.435573384658902
S 4.435308742827566 11.541380992326754 16.22792433700452
S 3.448795896388507 15.955253904535097 1.5359120621094753
S 13.08012074570102 13.861575635390984 5.546164296985431
S 12.11923596251518 8.579334922550835 3.2320640211120883
S 5.740478474177605 16.3348010480308 12.804575168059037
S 11.654707112091742 15.653081010333896 0.3720708400955466
S 5.1223537919808875 12.958384486639186 9.396112137063506
S 13.800264409477332 0.16266574234316145 15.511150672621985
S 8.765383336637669 2.7326021065744692 2.091368193307956
S 3.0867194553994652 1.3139353866227166 15.853802065354971
S 3.62079152781529 8.523404357841537 9.648122220071336
S 7.369642123959417 15.904282064784145 0.005140972658475462
S 5.006894900839088 4.536547159301593 11.20958068447506
S 1.086459562977567 4.551575518199783 2.3613361496482885
S 13.036360056494654 13.481405462724586 12.435556042476094
S 4.504919977555242 7.864457849438124 17.42237101116249
S 17.104710106382246 14.195885784601716 15.561082931315442
S 12.140018505562054 1.768989927234065 11.962748111272928
S 13.571239437411489 12.100806339967928 16.352577545140925
S 11.851110034242742 8.481933728970754 12.089292492370436
S 6.066525656537068 17.087937428020847 8.01120251977628
S 9.369820208750285 2.6055400138415052 8.71166417071883
S 17.809220267266735 0.1857856371564317 17.558232685985498
S 6.767253665713858 9.170805807227628 1.9802780376307185
S 10.190030530041238 10.073493054573865 15.307075591977892
S 2.78860913492707 17.951938021479005 7.083593965656027
S 2.7014590154480302 14.921819276692508 16.040984194388805
S 10.571061467636103 7.537805982164615 7.967292393923654
S 15.456705143432751 15.72550349781022 7.506773647768307
S 16.974185405428084 1.2776645344295767 5.816153396852914
S 2.906221223719592 8.05555785867418 6.254729263912202
S 9.008896038552207 6.230706360800971 0.12971189935834904
S 4.274016146117891 5.885164477118344 3.0096914845642226
S 1.3407696330696246 12.145113766476525 1.8138931276629893
S 14.76246209085505 6.483124874489077 4.279153328250973
S 16.069609701565014 11.142408499590553 12.71345982488873
S 8.530968418052531 13.924732672836655 13.906998458252609
S 14.12813222439149 11.669280618934415 2.8413595796519946
S 10.604719775524183 5.4331857000005535 4.469682477777311
S 8.083776485889627 13.273720294104596 2.636344362797826
S 13.626426740078248 17.36650862752283 3.4355510045914013
S 17.409437898636085 15.927092477480446 3.9000247277529096
S 8.753816033972587 14.863022822642838 5.972934058084693
S 3.403173820257609 7.842895960655764 13.173332195033272
S 1.8276380207432903 1.167844011858942 3.744768777429943
S 1.499535411990909 4.365994195259555 9.09333553732636
S 9.783772618394782 1.745283516812582 15.626406986207408
S 9.930058658340513 0.13603287402586317 5.584863071541466
S 7.018216208069771 1.5416787861634427 11.566875168898541
S 9.325392194741347 17.080684623415255 12.51175814303993
S 2.3029939485006237 11.976171896466532 5.322381027056689
S 12.202420579558842 5.56119462353506 14.277220146478065
S 5.672074969536922 2.4835194847936695 8.528774430555982
S 17.916758461982095 8.095363508773168 11.435896155539503
S 10.701275494598072 16.136918905095165 8.894266870403785
S 8.660069511127324 12.839516537045867 17.19953029662513
S 11.886822583575096 11.517434792829492 8.880278830459474
S 6.9104144918473995 8.341056430598533 14.998727538871762
S 12.546655373433554 4.974820500853534 9.803345411408474
S 0.9428796813023956 10.920794331947448 14.626392277395242
S 6.677781789939485 1.1778106210728114 17.18544235192871
S 7.1389915832997834 9.267028298669702 9.070613585690188
S 15.021390383579819 6.346304214450727 0.3763180305135654
S 16.84678144466366 12.566937262546064 5.043217283166799
S 14.55035358225079 8.091441701873212 9.675368935157078
S 13.460566555061426 16.752765853817735 11.000986883302827
S 0.1577804647955945 5.649952395901717 5.880063409818719
S 7.021307505486627 2.5802981608292397 5.189468751684328
S 12.949716869128316 2.84135320225557 4.749178643622612
S 16.98092903343146 11.083149379010782 17.418887940820525
S 11.711394261922786 3.817569655737505 0.23259084144362174
S 0.19271799236417797 0.09027811504692229 9.275580363510537
S 3.347685752587349 9.381397400672105 2.8805413084461255
S 5.020206937610842 12.087778382405814 1.5686123559188085
S 0.34657611168965663 3.5358081794201555 17.018410979548534
S 3.7695021726464293 13.441638210627483 12.961747620700715
S 3.9398771402278325 0.16919149296668357 10.528840186583937
S 11.010634791102776 11.331754532257193 1.240812499604179
S 11.606280208022316 15.64922754997439 14.855196785549426
