108
#comment initial random config
C -1.020824671169726 7.946474825433993 -2.3262407782919756
C -3.525542678692181 3.76886660857177 -1.848276830994794
C 3.7390916507938012 4.2817194112291945 -0.20329557136183402
C 1.7205981101115717 -2.4265660172686294 -6.869393518210975
C -1.8049418074963224 5.115122537057247 -7.130088285521224
C -2.9351502517866597 -3.717138580185384 0.5544232623621969
C 1.1095547806500192 1.5407149135211664 -5.32031778145629
C 8.260623512404596 -7.145848783944577 5.666657962779864
C 0.8873423741809813 5.099871401936909 -3.9921908409745064
C -4.260246737535768 -8.460096773077543 6.497184228116335
C 4.920123808450151 -3.707623967139491 4.624541610039522
C -3.4268081293875827 2.4289985271508625 1.6499645638218194
C 3.481478879027522 4.253676034368559 6.10256794091476
C 5.39069322281287 0.5474008452916619 2.737956442577593
C -1.352126302464749 -1.6068597292633617 -5.04659176140477
C -0.9542467638940868 8.890599795557385 5.457164627880384
C 1.6846521287209169 -6.840724345471244 -7.201553451849866
C -8.963011743002701 -4.680216803683674 -8.00639423783431
C 6.030360369430581 -7.222862523646059 -5.877981380918304
C -2.885050612111133 5.058597976646246 7.438592346161904
C 7.705564566098084 4.4219573116237765 -3.6213204981043687
C 0.10330648323898166 8.334453306585518 1.5264653317489283
C -5.822868897538468 8.43802310625144 -0.4120289886628106
C -5.268399073545258 1.006638797329422 7.706121228031104
C -2.7405238161716206 -5.670668550324132 8.316532014250676
C 8.308464486570244 5.657275329776348 -7.7705232177954535
C 0.8928836871824323 -3.049273726490514 7.444405659532814
C 6.294277251265248 6.169537813152475 7.28030806139249
C -2.61424942052856 1.6731663566153283 -7.558852400224952
C 4.427651572753307 -6.459417261923905 -1.7968705507119203
C 3.4365772192241795 -2.0610216025271275 1.530079871373847
C -4.92608779499006 -4.1390505287625174 5.545316236262163
C -5.889167421400326 8.58117230900833 3.2389204407193044
C 5.760904024908805 -1.6685091806118062 -5.1762516592608305
C -6.346211218072136 -2.341072987249448 0.38848723189867473
C 5.121303199359367 -5.037243095334235 -8.609967486780858
C -4.179708838708113 0.18467560488679077 -2.482079908018742
C 8.765679107683441 2.731569365485846 2.0837970547539784
C 3.0878193542545573 1.3085291631542941 -2.1496975851501277
C 3.6315047853712774 8.51089281179049 -8.351833443455565
C 7.366092513882812 -2.0934202992279247 0.017401630567053017
C 4.995194804478151 4.551993619671601 -6.767959206312703
C 1.0742892288438854 4.54823854878456 2.3685751806124764
C -4.956876019687714 -4.534664784266667 -5.568363243612156
C 4.489092257233357 7.8617505632823645 -0.5672948936540674
C -0.8876791633567368 -3.815015667969519 -2.426838329591755
C -5.87413931454233 1.7922390768581522 -6.027514116301101
C -4.440357331422511 -5.917784188475218 -1.6649761235461233
C -6.153209756133853 8.486148244228572 -5.90503667108484
C 6.091112111863591 -0.9427255258252079 7.997127217261839
C -8.625259483583148 2.5974094326954815 8.708736406860508
C -0.1930911778147957 0.16348668202339267 -0.43843274317664804
C 6.792643262373332 -8.851994650870326 1.9846405294547549
C -7.8239328219777615 -7.918183011346067 -2.715106699478807
C 2.8033006694025016 -0.041779778159221785 7.056829614030243
C 2.7017464794488504 -3.0755993713537215 -1.9513658558163485
C -7.431444446092582 7.537598276566047 7.9656650886787315
C -2.552337342993254 -2.254781816774675 7.508400006212491
C -1.0336374626640878 1.2767252423284658 5.821713063128608
C 2.9056095266923703 8.05465199108604 6.245326081555491
C -8.994848438815387 6.23404723702186 0.13112656517080348
C 4.292765898636111 5.888183412071098 3.0082396304859014
C 1.3413665371177375 -5.844951244810721 1.8161652999630886
C -3.238314305118579 6.473216829961581 4.260526060117399
C -1.9495509650459995 -6.856015487528354 -5.300683162477808
C 8.523120791308706 -4.079299145554556 -4.108800447294811
C -3.8665297717901765 -6.336306229518164 2.8460175708135766
C -7.408349777994959 5.444927975380054 4.469764590691061
C 8.101837313275464 -4.71514321059687 2.6587970338441806
C -4.3763299767360655 -0.6333870191967026 3.4332846795476026
C -0.5889839655111317 -2.0640413054830278 3.8964038412272197
C 8.748895934886592 -3.150546700869184 5.97169681096406
C 3.401374741158597 7.83564086027256 -4.819276359398429
C 1.836755586875588 1.167506198935422 3.734457422464648
C 1.4925003759911273 4.368025308235896 -8.898828331940177
C -8.203194356709629 1.7451914839254454 -2.373845450359391
C -8.072319615708288 0.14782546628646814 5.577882244287494
C 7.030555817715167 1.5503867000218736 -6.4148918150913365
C -8.667019764086358 -0.9149371743712278 -5.493578477440364
C 2.311109282496382 -6.030801652498569 5.333375391248435
C -5.812247993321571 5.573805545981302 -3.7372596813529206
C 5.670768615208491 2.5033005392006147 8.495384282663398
C -0.0827763537224506 8.10561998981598 -6.562348201695452
C -7.298636630055998 -1.8469620636254518 8.878140462991926
C 8.657157151588628 -5.180595949541592 -0.8141651191884747
C -6.123033198558831 -6.487797729519456 8.883574128315681
C 6.925786805776996 8.343309515125902 -3.019793066441101
C -5.462835319054036 4.973761886990629 -8.18466034514231
C 0.9732592723816246 -7.080142167584831 -3.38236887419682
C 6.66010345050107 1.1957154571925075 -0.8123629529348603
C 7.147500233547289 -8.734226944707984 -8.937294707463662
C -2.9690357391762308 6.365626500770416 0.39492808682141944
C -1.1590844132117837 -5.435883006288085 5.044464400600216
C -3.4438423684154276 8.091245000883063 -8.319965099343458
C -4.523069846960224 -1.269982282155029 -6.99857555550775
C 0.17363223132697087 5.632590308203337 5.870775084035441
C 7.025670261163786 2.5819187125434047 5.192410419335593
C -5.046589057789814 2.8403538973071374 4.745706407386541
C -1.042995288540701 -6.913664867582594 -0.564286654886144
C -6.319476186435091 3.818749595890474 0.23611282834411706
C 0.18567880824235755 0.09473745004416942 -8.72491109380341
C 3.3345037029937012 -8.634949172778393 2.8917081452230584
C 5.0063196761016835 -5.878384918631888 1.5747525115150836
C 0.3348871798945008 3.5403410140886917 -0.9724392934705116
C 3.7696732973392506 -4.579793623027298 -5.0339294645607655
C 3.913802584929986 0.19094098655855266 -7.4667882263244945
C -6.995477953685478 -6.6606757195577435 1.2519355605933256
C -6.407446867316812 -2.366863319666921 -3.1484740059648777
